LVTestCase/Loads13.txt
New Load.LOAD1 Phases=1 Bus1=387.2 kV=0.23 kW=5.6 PF=0.93
New Load.LOAD2 Phases=1 Bus1=522.1 kV=0.23 kW=3.5 PF=0.95
New Load.LOAD3 Phases=1 Bus1=835.1 kV=0.23 kW=5.6 PF=0.98
New Load.LOAD4 Phases=1 Bus1=813.1 kV=0.23 kW=0.7 PF=-0.9
New Load.LOAD5 Phases=1 Bus1=676.2 kV=0.23 kW=0.7 PF=0.98
New Load.LOAD6 Phases=1 Bus1=225.2 kV=0.23 kW=0.7 PF=0.98
New Load.LOAD7 Phases=1 Bus1=342.3 kV=0.23 kW=1.4 PF=-0.9
New Load.LOAD8 Phases=1 Bus1=682.3 kV=0.23 kW=5.6 PF=0.93
New Load.LOAD9 Phases=1 Bus1=860.2 kV=0.23 kW=3.5 PF=0.95
New Load.LOAD10 Phases=1 Bus1=276.2 kV=0.23 kW=1.4 PF=0.95
New Load.LOAD11 Phases=1 Bus1=817.2 kV=0.23 kW=1.4 PF=0.93
New Load.LOAD12 Phases=1 Bus1=896.2 kV=0.23 kW=3.5 PF=0.9
New Load.LOAD13 Phases=1 Bus1=337.1 kV=0.23 kW=0.7 PF=-0.9
New Load.LOAD14 Phases=1 Bus1=563.3 kV=0.23 kW=0.7 PF=0.9
New Load.LOAD15 Phases=1 Bus1=778.3 kV=0.23 kW=0.7 PF=0.92
New Load.LOAD16 Phases=1 Bus1=682.2 kV=0.23 kW=1.4 PF=-0.9
New Load.LOAD17 Phases=1 Bus1=899.3 kV=0.23 kW=0.7 PF=0.92
New Load.LOAD18 Phases=1 Bus1=349.2 kV=0.23 kW=0.7 PF=0.93
New Load.LOAD19 Phases=1 Bus1=614.2 kV=0.23 kW=0.7 PF=0.95
New Load.LOAD20 Phases=1 Bus1=611.2 kV=0.23 kW=0.7 PF=0.9
New Load.LOAD21 Phases=1 Bus1=47.1 kV=0.23 kW=0.7 PF=-0.9
New Load.LOAD22 Phases=1 Bus1=289.3 kV=0.23 kW=0.7 PF=0.93
New Load.LOAD23 Phases=1 Bus1=264.2 kV=0.23 kW=0.7 PF=-0.95
New Load.LOAD24 Phases=1 Bus1=248.1 kV=0.23 kW=1.4 PF=0.95
New Load.LOAD25 Phases=1 Bus1=639.2 kV=0.23 kW=0.7 PF=0.92
New Load.LOAD26 Phases=1 Bus1=896.3 kV=0.23 kW=0.7 PF=0.92
New Load.LOAD27 Phases=1 Bus1=70.2 kV=0.23 kW=0.7 PF=0.93
New Load.LOAD28 Phases=1 Bus1=629.1 kV=0.23 kW=0.7 PF=0.95
New Load.LOAD29 Phases=1 Bus1=639.3 kV=0.23 kW=0.7 PF=-0.95
New Load.LOAD30 Phases=1 Bus1=898.1 kV=0.23 kW=0.7 PF=0.92
New Load.LOAD31 Phases=1 Bus1=785.2 kV=0.23 kW=0.7 PF=-0.95
New Load.LOAD32 Phases=1 Bus1=614.3 kV=0.23 kW=3.5 PF=-0.95
New Load.LOAD33 Phases=1 Bus1=562.3 kV=0.23 kW=7.0 PF=0.92
New Load.LOAD34 Phases=1 Bus1=70.3 kV=0.23 kW=0.7 PF=-0.9
New Load.LOAD35 Phases=1 Bus1=899.1 kV=0.23 kW=1.4 PF=0.92
New Load.LOAD36 Phases=1 Bus1=458.3 kV=0.23 kW=0.7 PF=0.92
New Load.LOAD37 Phases=1 Bus1=337.2 kV=0.23 kW=3.5 PF=0.95
New Load.LOAD38 Phases=1 Bus1=502.3 kV=0.23 kW=0.7 PF=0.92
New Load.LOAD39 Phases=1 Bus1=249.2 kV=0.23 kW=0.7 PF=-0.95
New Load.LOAD40 Phases=1 Bus1=619.3 kV=0.23 kW=0.7 PF=0.92
New Load.LOAD41 Phases=1 Bus1=701.3 kV=0.23 kW=0.7 PF=0.92
New Load.LOAD42 Phases=1 Bus1=388.3 kV=0.23 kW=0.7 PF=0.95
New Load.LOAD43 Phases=1 Bus1=314.2 kV=0.23 kW=7.0 PF=0.92
New Load.LOAD44 Phases=1 Bus1=906.1 kV=0.23 kW=0.7 PF=0.9
New Load.LOAD45 Phases=1 Bus1=320.3 kV=0.23 kW=0.7 PF=0.93
New Load.LOAD46 Phases=1 Bus1=778.2 kV=0.23 kW=5.6 PF=0.95
New Load.LOAD47 Phases=1 Bus1=74.1 kV=0.23 kW=5.6 PF=-0.9
New Load.LOAD48 Phases=1 Bus1=813.2 kV=0.23 kW=0.7 PF=0.95
New Load.LOAD49 Phases=1 Bus1=611.1 kV=0.23 kW=0.7 PF=0.98
New Load.LOAD50 Phases=1 Bus1=406.2 kV=0.23 kW=7.0 PF=0.92
New Load.LOAD51 Phases=1 Bus1=860.3 kV=0.23 kW=0.7 PF=0.93
New Load.LOAD52 Phases=1 Bus1=614.1 kV=0.23 kW=1.4 PF=-0.9
New Load.LOAD53 Phases=1 Bus1=522.3 kV=0.23 kW=0.7 PF=0.92
New Load.LOAD54 Phases=1 Bus1=388.1 kV=0.23 kW=1.4 PF=-0.9
New Load.LOAD55 Phases=1 Bus1=337.3 kV=0.23 kW=0.7 PF=0.93
New Load.LOAD56 Phases=1 Bus1=835.2 kV=0.23 kW=0.7 PF=-0.95
New Load.LOAD57 Phases=1 Bus1=780.3 kV=0.23 kW=0.7 PF=0.93
New Load.LOAD58 Phases=1 Bus1=327.2 kV=0.23 kW=5.6 PF=-0.95
New Load.LOAD59 Phases=1 Bus1=249.1 kV=0.23 kW=0.7 PF=0.9
New Load.LOAD60 Phases=1 Bus1=406.1 kV=0.23 kW=0.7 PF=0.95
New Load.LOAD61 Phases=1 Bus1=74.2 kV=0.23 kW=0.7 PF=0.9
New Load.LOAD62 Phases=1 Bus1=83.1 kV=0.23 kW=0.7 PF=-0.95
New Load.LOAD63 Phases=1 Bus1=387.1 kV=0.23 kW=0.7 PF=-0.9
New Load.LOAD64 Phases=1 Bus1=249.3 kV=0.23 kW=1.4 PF=0.93
New Load.LOAD65 Phases=1 Bus1=785.3 kV=0.23 kW=1.4 PF=0.93
New Load.LOAD66 Phases=1 Bus1=458.1 kV=0.23 kW=0.7 PF=0.98
New Load.LOAD67 Phases=1 Bus1=47.2 kV=0.23 kW=1.4 PF=0.98
New Load.LOAD68 Phases=1 Bus1=178.1 kV=0.23 kW=0.7 PF=0.98
New Load.LOAD69 Phases=1 Bus1=676.3 kV=0.23 kW=0.7 PF=0.9
New Load.LOAD70 Phases=1 Bus1=900.2 kV=0.23 kW=0.7 PF=0.95
New Load.LOAD71 Phases=1 Bus1=83.3 kV=0.23 kW=0.7 PF=-0.9
New Load.LOAD72 Phases=1 Bus1=208.1 kV=0.23 kW=7.0 PF=0.9
New Load.LOAD73 Phases=1 Bus1=898.2 kV=0.23 kW=0.7 PF=0.92
New Load.LOAD74 Phases=1 Bus1=563.2 kV=0.23 kW=0.7 PF=0.9
New Load.LOAD75 Phases=1 Bus1=562.2 kV=0.23 kW=0.7 PF=-0.9
New Load.LOAD76 Phases=1 Bus1=74.3 kV=0.23 kW=0.7 PF=0.93
New Load.LOAD77 Phases=1 Bus1=264.3 kV=0.23 kW=0.7 PF=0.95
New Load.LOAD78 Phases=1 Bus1=47.3 kV=0.23 kW=3.5 PF=0.98
New Load.LOAD79 Phases=1 Bus1=70.1 kV=0.23 kW=0.7 PF=0.9
New Load.LOAD80 Phases=1 Bus1=817.3 kV=0.23 kW=0.7 PF=0.92
New Load.LOAD81 Phases=1 Bus1=906.2 kV=0.23 kW=1.4 PF=-0.95
New Load.LOAD82 Phases=1 Bus1=886.1 kV=0.23 kW=1.4 PF=0.93
New Load.LOAD83 Phases=1 Bus1=886.2 kV=0.23 kW=0.7 PF=0.92
New Load.LOAD84 Phases=1 Bus1=611.3 kV=0.23 kW=1.4 PF=0.93
New Load.LOAD85 Phases=1 Bus1=225.3 kV=0.23 kW=0.7 PF=0.98
New Load.LOAD86 Phases=1 Bus1=701.2 kV=0.23 kW=0.7 PF=0.98
New Load.LOAD87 Phases=1 Bus1=900.3 kV=0.23 kW=0.7 PF=0.95
New Load.LOAD88 Phases=1 Bus1=780.1 kV=0.23 kW=7.0 PF=-0.95
New Load.LOAD89 Phases=1 Bus1=539.2 kV=0.23 kW=0.7 PF=0.93
New Load.LOAD90 Phases=1 Bus1=539.3 kV=0.23 kW=3.5 PF=0.93
New Load.LOAD91 Phases=1 Bus1=556.1 kV=0.23 kW=0.7 PF=0.92
New Load.LOAD92 Phases=1 Bus1=225.1 kV=0.23 kW=0.7 PF=0.93
New Load.LOAD93 Phases=1 Bus1=896.1 kV=0.23 kW=0.7 PF=0.92
New Load.LOAD94 Phases=1 Bus1=73.2 kV=0.23 kW=0.7 PF=-0.95
New Load.LOAD95 Phases=1 Bus1=639.1 kV=0.23 kW=0.7 PF=0.93
New Load.LOAD96 Phases=1 Bus1=342.1 kV=0.23 kW=0.7 PF=0.92
New Load.LOAD97 Phases=1 Bus1=861.2 kV=0.23 kW=0.7 PF=-0.9
New Load.LOAD98 Phases=1 Bus1=813.3 kV=0.23 kW=0.7 PF=0.93
New Load.LOAD99 Phases=1 Bus1=327.1 kV=0.23 kW=0.7 PF=0.93
New Load.LOAD100 Phases=1 Bus1=676.1 kV=0.23 kW=1.4 PF=-0.9